Circuit: * Z:\home\pab\Inventions\analog-circuit-game-console\ms-circuit-video-games\test-circuits\ltspice-circuits\sample-and-hold.asc

Direct Newton iteration failed to find .op point.  (Use ".option noopiter" to skip.)
Starting Gmin stepping
Gmin = 10
Gmin = 1.07374
Gmin = 0.115292
Gmin = 0.0123794
Gmin = 0.00132923
Gmin = 0.000142725
Gmin = 1.5325e-005
Gmin = 1.6455e-006
Gmin = 1.76685e-007
Gmin = 1.89714e-008
Gmin = 2.03704e-009
Gmin = 2.18725e-010
Gmin = 2.34854e-011
Gmin = 2.52173e-012
Gmin = 2.70769e-013
Gmin = 0
Gmin stepping succeeded in finding the operating point.


Date: Tue Mar 29 14:48:37 2022
Total elapsed time: 0.226 seconds.

tnom = 27
temp = 27
method = modified trap
totiter = 46215
traniter = 45816
tranpoints = 13908
accept = 12508
rejected = 1400
matrix size = 17
fillins = 4
solver = Normal
Matrix Compiler1:      61 opcodes  0.3/[0.2]/0.2
Matrix Compiler2: 1.56 KB object code size  0.3/0.3/[0.2]

